data_O80Si40_2021-12-10_17:32:04
#******************************************
#
# CIF file created by Zeo++
# Zeo++ is an open source package to
# analyze microporous materials
#
#*******************************************

_cell_length_a		9.764   
_cell_length_b		25.614   
_cell_length_c		8.327   
_cell_angle_alpha		90   
_cell_angle_beta		90   
_cell_angle_gamma		90   

_symmetry_space_group_name_H-M		'P1'
_symmetry_Int_Tables_number		1
_symmetry_cell_setting		Orthorhombic

loop_
_symmetry_equiv_pos_as_xyz
'+x,+y,+z'

loop_
_atom_site_label
_atom_site_type_symbol
_atom_site_fract_x
_atom_site_fract_y
_atom_site_fract_z
0	O	0.1806	0.3464	0.25
1	O	0.6806	0.8464	0.25
2	O	0.8194	0.3464	0.25
3	O	0.3194	0.8464	0.25
4	O	0.1806	0.6536	0.75
5	O	0.6806	0.1536	0.75
6	O	0.8194	0.6536	0.75
7	O	0.3194	0.1536	0.75
16	O	0.3655	0.3588	0.0233
17	O	0.8655	0.8588	0.0233
18	O	0.6345	0.3588	0.0233
19	O	0.1345	0.8588	0.0233
20	O	0.3655	0.6412	0.5233
21	O	0.8655	0.1412	0.5233
22	O	0.6345	0.6412	0.5233
23	O	0.1345	0.1412	0.5233
24	O	0.6345	0.6412	0.9767
25	O	0.1345	0.1412	0.9767
26	O	0.3655	0.6412	0.9767
27	O	0.8655	0.1412	0.9767
28	O	0.6345	0.3588	0.4767
29	O	0.1345	0.8588	0.4767
30	O	0.3655	0.3588	0.4767
31	O	0.8655	0.8588	0.4767
32	O	0.1347	0.31	0.9604
33	O	0.6347	0.81	0.9604
34	O	0.8653	0.31	0.9604
35	O	0.3653	0.81	0.9604
36	O	0.1347	0.69	0.4604
37	O	0.6347	0.19	0.4604
38	O	0.8653	0.69	0.4604
39	O	0.3653	0.19	0.4604
40	O	0.8653	0.69	0.0396
41	O	0.3653	0.19	0.0396
42	O	0.1347	0.69	0.0396
43	O	0.6347	0.19	0.0396
44	O	0.8653	0.31	0.5396
45	O	0.3653	0.81	0.5396
46	O	0.1347	0.31	0.5396
47	O	0.6347	0.81	0.5396
48	O	0.1346	0.4113	0.0113
49	O	0.6346	0.9113	0.0113
50	O	0.8654	0.4113	0.0113
51	O	0.3654	0.9113	0.0113
52	O	0.1346	0.5887	0.5113
53	O	0.6346	0.0887	0.5113
54	O	0.8654	0.5887	0.5113
55	O	0.3654	0.0887	0.5113
56	O	0.8654	0.5887	0.9887
57	O	0.3654	0.0887	0.9887
58	O	0.1346	0.5887	0.9887
59	O	0.6346	0.0887	0.9887
60	O	0.8654	0.4113	0.4887
61	O	0.3654	0.9113	0.4887
62	O	0.1346	0.4113	0.4887
63	O	0.6346	0.9113	0.4887
64	O	0.5	0	0
65	O	0	0.5	0
68	O	0.5	0	0.5
69	O	0	0.5	0.5
80	O	0.5	0.0628	0.25
81	O	0	0.5628	0.25
84	O	0.5	0.9372	0.75
85	O	0	0.4372	0.75
96	O	0.5	0.2464	0.25
97	O	0	0.7464	0.25
100	O	0.5	0.7536	0.75
101	O	0	0.2536	0.75
112	O	0.5	0.2736	0.9453
113	O	0	0.7736	0.9453
116	O	0.5	0.7264	0.4453
117	O	0	0.2264	0.4453
120	O	0.5	0.7264	0.0547
121	O	0	0.2264	0.0547
124	O	0.5	0.2736	0.5547
125	O	0	0.7736	0.5547
128	O	0	0.1457	0.25
129	O	0.5	0.6457	0.25
132	O	0	0.8543	0.75
133	O	0.5	0.3543	0.75
144	Si	0.204	0.3567	0.0614
145	Si	0.704	0.8567	0.0614
146	Si	0.796	0.3567	0.0614
147	Si	0.296	0.8567	0.0614
148	Si	0.204	0.6433	0.5614
149	Si	0.704	0.1433	0.5614
150	Si	0.796	0.6433	0.5614
151	Si	0.296	0.1433	0.5614
152	Si	0.796	0.6433	0.9386
153	Si	0.296	0.1433	0.9386
154	Si	0.204	0.6433	0.9386
155	Si	0.704	0.1433	0.9386
156	Si	0.796	0.3567	0.4386
157	Si	0.296	0.8567	0.4386
158	Si	0.204	0.3567	0.4386
159	Si	0.704	0.8567	0.4386
160	Si	0.5	0.0599	0.0571
161	Si	0	0.5599	0.0571
164	Si	0.5	0.9401	0.5571
165	Si	0	0.4401	0.5571
168	Si	0.5	0.9401	0.9429
169	Si	0	0.4401	0.9429
172	Si	0.5	0.0599	0.4429
173	Si	0	0.5599	0.4429
176	Si	0.5	0.225	0.0681
177	Si	0	0.725	0.0681
180	Si	0.5	0.775	0.5681
181	Si	0	0.275	0.5681
184	Si	0.5	0.775	0.9319
185	Si	0	0.275	0.9319
188	Si	0.5	0.225	0.4319
189	Si	0	0.725	0.4319
192	Si	0	0.1636	0.0647
193	Si	0.5	0.6636	0.0647
196	Si	0	0.8364	0.5647
197	Si	0.5	0.3364	0.5647
200	Si	0	0.8364	0.9353
201	Si	0.5	0.3364	0.9353
204	Si	0	0.1636	0.4353
205	Si	0.5	0.6636	0.4353
